@<TRIPOS>MOLECULE
UNL
   37    39     1     0     0
SMALL
bcc


@<TRIPOS>ATOM
      1 O1          -2.1900     0.5760    -0.1190 o          1 UNL      -0.864700
      2 C1          -0.9830     0.1380    -0.0600 ca         1 UNL       0.515700
      3 C2          -0.3950    -0.1200     1.1770 ca         1 UNL      -0.340000
      4 C3           0.9350    -0.5650     1.2470 ca         1 UNL      -0.052000
      5 C4           1.6790    -0.7830     0.0750 ca         1 UNL      -0.250300
      6 C5           3.1790    -1.1690     0.1020 c3         1 UNL       0.190400
      7 O2           3.8750    -0.5460    -0.9990 os         1 UNL      -0.327900
      8 C6           4.0190     0.8180    -0.8250 ca         1 UNL       0.086100
      9 C7           4.0510     1.6220    -1.9570 ca         1 UNL      -0.163000
     10 C8           4.1410     3.0120    -1.8180 ca         1 UNL      -0.151000
     11 C9           4.1900     3.6070    -0.5450 ca         1 UNL      -0.063800
     12 C10          4.2020     5.0800    -0.3620 ce         1 UNL      -0.117200
     13 C11          4.4660     6.0140    -1.3100 cf         1 UNL      -0.217200
     14 C12          4.4220     7.5400    -1.0740 c          1 UNL       0.892800
     15 O3           4.1280     7.9220     0.0810 o          1 UNL      -0.865800
     16 O4           4.7020     8.2100    -2.0970 o          1 UNL      -0.865800
     17 C13          4.1980     2.7730     0.5870 ca         1 UNL      -0.136000
     18 C14          4.1140     1.3880     0.4560 ca         1 UNL       0.087100
     19 O5           4.0180     0.6390     1.6170 os         1 UNL      -0.307900
     20 C15          3.9530    -0.8000     1.4130 c3         1 UNL       0.000100
     21 C16          5.3360    -1.5250     1.4510 c          1 UNL       0.903600
     22 O6           6.3360    -0.9130     1.9010 o          1 UNL      -0.843300
     23 O7           5.3680    -2.7440     1.1450 o          1 UNL      -0.843300
     24 C17          1.0500    -0.5870    -1.1660 ca         1 UNL      -0.073000
     25 C18         -0.2500    -0.0900    -1.2380 ca         1 UNL      -0.103900
     26 O8          -0.8120     0.1960    -2.4670 oh         1 UNL      -0.563100
     27 H1          -0.9620     0.0370     2.0770 ha         1 UNL       0.095000
     28 H2           1.3680    -0.7130     2.2260 ha         1 UNL       0.110000
     29 H3           3.1900    -2.2480    -0.0570 h1         1 UNL       0.103700
     30 H4           3.9760     1.1660    -2.9320 ha         1 UNL       0.117000
     31 H5           4.1380     3.6220    -2.7080 ha         1 UNL       0.112000
     32 H6           3.9520     5.4380     0.6290 ha         1 UNL       0.128000
     33 H7           4.7240     5.7070    -2.3100 ha         1 UNL       0.095000
     34 H8           4.2420     3.1860     1.5830 ha         1 UNL       0.134000
     35 H9           3.4570    -1.2370     2.2770 h1         1 UNL       0.069700
     36 H10          1.6000    -0.7670    -2.0840 ha         1 UNL       0.103000
     37 H11         -1.6520     0.5930    -2.1860 ho         1 UNL       0.408000
@<TRIPOS>BOND
     1     1     2 1   
     2     2     3 ar  
     3     2    25 ar  
     4     3     4 ar  
     5     3    27 1   
     6     4     5 ar  
     7     4    28 1   
     8     5     6 1   
     9     5    24 ar  
    10     6     7 1   
    11     6    20 1   
    12     6    29 1   
    13     7     8 1   
    14     8     9 ar  
    15     8    18 ar  
    16     9    10 ar  
    17     9    30 1   
    18    10    11 ar  
    19    10    31 1   
    20    11    12 1   
    21    11    17 ar  
    22    12    13 2   
    23    12    32 1   
    24    13    14 1   
    25    13    33 1   
    26    14    15 1   
    27    14    16 1   
    28    17    18 ar  
    29    17    34 1   
    30    18    19 1   
    31    19    20 1   
    32    20    21 1   
    33    20    35 1   
    34    21    22 1   
    35    21    23 1   
    36    24    25 ar  
    37    24    36 1   
    38    25    26 1   
    39    26    37 1   
@<TRIPOS>SUBSTRUCTURE
     1 UNL         1 TEMP              0 ****  ****    0 ROOT
