# created with PyMOL 2.5.0
@<TRIPOS>MOLECULE
opt
37 39 1                 
SMALL
USER_CHARGES
@<TRIPOS>ATOM
1	  C1	-0.983	0.138	-0.060	C.2	1	UNL1	0.000	
2	  O1	-2.190	0.576	-0.119	O.2	1	UNL1	0.000	
3	  C2	-0.395	-0.120	1.177	C.2	1	UNL1	0.000	
4	  O2	3.875	-0.546	-0.999	O.3	1	UNL1	0.000	
5	  C3	0.935	-0.565	1.247	C.2	1	UNL1	0.000	
6	  O3	4.128	7.922	0.081	O.co2	1	UNL1	0.000	
7	  C4	1.679	-0.783	0.075	C.2	1	UNL1	0.000	
8	  O4	4.702	8.210	-2.097	O.co2	1	UNL1	0.000	
9	  C5	3.179	-1.169	0.102	C.3	1	UNL1	0.000	
10	  O5	4.018	0.639	1.617	O.3	1	UNL1	0.000	
11	  C6	4.019	0.818	-0.825	C.2	1	UNL1	0.000	
12	  O6	6.336	-0.913	1.901	O.co2	1	UNL1	0.000	
13	  C7	4.051	1.622	-1.957	C.2	1	UNL1	0.000	
14	  O7	5.368	-2.744	1.145	O.co2	1	UNL1	0.000	
15	  C8	4.141	3.012	-1.818	C.2	1	UNL1	0.000	
16	  O8	-0.812	0.196	-2.467	O.3	1	UNL1	0.000	
17	  C9	4.190	3.607	-0.545	C.2	1	UNL1	0.000	
18	 C10	4.202	5.080	-0.362	C.3	1	UNL1	0.000	
19	 C11	4.466	6.014	-1.310	C.3	1	UNL1	0.000	
20	 C12	4.422	7.540	-1.074	C.2	1	UNL1	0.000	
21	 C13	4.198	2.773	0.587	C.2	1	UNL1	0.000	
22	 C14	4.114	1.388	0.456	C.2	1	UNL1	0.000	
23	 C15	3.953	-0.800	1.413	C.3	1	UNL1	0.000	
24	 C16	5.336	-1.525	1.451	C.2	1	UNL1	0.000	
25	 C17	1.050	-0.587	-1.166	C.2	1	UNL1	0.000	
26	 C18	-0.250	-0.090	-1.238	C.2	1	UNL1	0.000	
27	  H1	-0.962	0.037	2.077	 H	1	UNL1	0.000	
28	  H2	1.368	-0.713	2.226	 H	1	UNL1	0.000	
29	  H3	3.190	-2.248	-0.057	 H	1	UNL1	0.000	
30	  H4	3.976	1.166	-2.932	 H	1	UNL1	0.000	
31	  H5	4.138	3.622	-2.708	 H	1	UNL1	0.000	
32	  H6	3.952	5.438	0.629	 H	1	UNL1	0.000	
33	  H7	4.724	5.707	-2.310	 H	1	UNL1	0.000	
34	  H8	4.242	3.186	1.583	 H	1	UNL1	0.000	
35	  H9	3.457	-1.237	2.277	 H	1	UNL1	0.000	
36	 H10	1.600	-0.767	-2.084	 H	1	UNL1	0.000	
37	 H11	-1.652	0.593	-2.186	 H	1	UNL1	0.000	
@<TRIPOS>BOND
1 1 3 ar
2 1 26 ar
3 1 2 2
4 3 5 ar
5 3 27 1
6 4 11 1
7 5 7 ar
8 5 28 1
9 7 9 1
10 7 25 ar
11 4 9 1
12 9 23 1
13 9 29 1
14 10 23 1
15 11 13 ar
16 11 22 ar
17 13 15 ar
18 13 30 1
19 15 17 ar
20 15 31 1
21 16 37 1
22 17 18 1
23 17 21 ar
24 18 19 1
25 18 32 1
26 19 20 1
27 19 33 1
28 6 20 ar
29 8 20 ar
30 21 22 ar
31 21 34 1
32 10 22 1
33 23 24 1
34 23 35 1
35 12 24 ar
36 14 24 ar
37 25 26 ar
38 25 36 1
39 16 26 1
@<TRIPOS>SUBSTRUCTURE
1	UNL1	1	GROUP	1 ****	UNL
