@<TRIPOS>MOLECULE
opt.pdb
 37 39 0 0 0
SMALL
GASTEIGER

@<TRIPOS>ATOM
      1  O1        -2.1900    0.5760   -0.1190 O.co2   1  UNL1       -0.8713
      2  C1        -0.9830    0.1380   -0.0600 C.ar    1  UNL1       -0.0656
      3  C2        -0.3950   -0.1200    1.1770 C.ar    1  UNL1       -0.0657
      4  C3         0.9350   -0.5650    1.2470 C.ar    1  UNL1       -0.0553
      5  C4         1.6790   -0.7830    0.0750 C.ar    1  UNL1        0.0000
      6  C5         3.1790   -1.1690    0.1020 C.3     1  UNL1        0.1673
      7  O2         3.8750   -0.5460   -0.9990 O.3     1  UNL1       -0.4765
      8  C6         4.0190    0.8180   -0.8250 C.ar    1  UNL1        0.1631
      9  C7         4.0510    1.6220   -1.9570 C.ar    1  UNL1       -0.0157
     10  C8         4.1410    3.0120   -1.8180 C.ar    1  UNL1       -0.0509
     11  C9         4.1900    3.6070   -0.5450 C.ar    1  UNL1       -0.0213
     12  C10        4.2020    5.0800   -0.3620 C.2     1  UNL1       -0.0528
     13  C11        4.4660    6.0140   -1.3100 C.2     1  UNL1       -0.0388
     14  C12        4.4220    7.5400   -1.0740 C.2     1  UNL1        0.0646
     15  O3         4.1280    7.9220    0.0810 O.co2   1  UNL1       -0.5452
     16  O4         4.7020    8.2100   -2.0970 O.co2   1  UNL1       -0.5452
     17  C13        4.1980    2.7730    0.5870 C.ar    1  UNL1       -0.0091
     18  C14        4.1140    1.3880    0.4560 C.ar    1  UNL1        0.1636
     19  O5         4.0180    0.6390    1.6170 O.3     1  UNL1       -0.4753
     20  C15        3.9530   -0.8000    1.4130 C.3     1  UNL1        0.1799
     21  C16        5.3360   -1.5250    1.4510 C.2     1  UNL1        0.0860
     22  O6         6.3360   -0.9130    1.9010 O.co2   1  UNL1       -0.5459
     23  O7         5.3680   -2.7440    1.1450 O.co2   1  UNL1       -0.5459
     24  C17        1.0500   -0.5870   -1.1660 C.ar    1  UNL1       -0.0140
     25  C18       -0.2500   -0.0900   -1.2380 C.ar    1  UNL1        0.1096
     26  O8        -0.8120    0.1960   -2.4670 O.3     1  UNL1       -0.5074
     27  H1        -0.9620    0.0370    2.0770 H       1  UNL1        0.0613
     28  H2         1.3680   -0.7130    2.2260 H       1  UNL1        0.0621
     29  H3         3.1900   -2.2480   -0.0570 H       1  UNL1        0.0826
     30  H4         3.9760    1.1660   -2.9320 H       1  UNL1        0.0655
     31  H5         4.1380    3.6220   -2.7080 H       1  UNL1        0.0625
     32  H6         3.9520    5.4380    0.6290 H       1  UNL1        0.0624
     33  H7         4.7240    5.7070   -2.3100 H       1  UNL1        0.0635
     34  H8         4.2420    3.1860    1.5830 H       1  UNL1        0.0661
     35  H9         3.4570   -1.2370    2.2770 H       1  UNL1        0.0838
     36  H10        1.6000   -0.7670   -2.0840 H       1  UNL1        0.0658
     37  H11       -1.6520    0.5930   -2.1860 H       1  UNL1        0.2921
@<TRIPOS>UNITY_ATOM_ATTR
1 1
charge -1
15 1
charge -1
22 1
charge -1
@<TRIPOS>BOND
     1    30     9    1
     2    31    10    1
     3    26    37    1
     4    26    25    1
     5    33    13    1
     6    16    14   ar
     7    36    24    1
     8     9    10   ar
     9     9     8   ar
    10    10    11   ar
    11    13    14    1
    12    13    12    2
    13    25    24   ar
    14    25     2   ar
    15    24     5   ar
    16    14    15   ar
    17     7     8    1
    18     7     6    1
    19     8    18   ar
    20    11    12    1
    21    11    17   ar
    22    12    32    1
    23     1     2    1
    24     2     3   ar
    25    29     6    1
    26     5     6    1
    27     5     4   ar
    28     6    20    1
    29    18    17   ar
    30    18    19    1
    31    17    34    1
    32    23    21   ar
    33     3     4   ar
    34     3    27    1
    35     4    28    1
    36    20    21    1
    37    20    19    1
    38    20    35    1
    39    21    22   ar
